[Format]      =  4.0
[Frequency]   =  0
[Precision]   =  1e-008
[MinAngle]    =  30
[DoSmartMesh] =  0
[Depth]       =  0.34999999999999998
[LengthUnits] =  meters
[ProblemType] =  planar
[Coordinates] =  cartesian
[ACSolver]    =  0
[PrevType]    =  0
[PrevSoln]    =  ""
[Comment]     =  "Add comments here."
[PointProps]   = 0
[BdryProps]   = 2
  <BeginBdry>
    <BdryName> = "bc_A0"
    <BdryType> = 0
    <A_0> = 0
    <A_1> = 0
    <A_2> = 0
    <Phi> = 0
    <c0> = 0
    <c0i> = 0
    <c1> = 0
    <c1i> = 0
    <Mu_ssd> = 0
    <Sigma_ssd> = 0
    <innerangle> = 0
    <outerangle> = 0
  <EndBdry>
  <BeginBdry>
    <BdryName> = "bc_ag2"
    <BdryType> = 6
    <A_0> = 0
    <A_1> = 0
    <A_2> = 0
    <Phi> = 0
    <c0> = 0
    <c0i> = 0
    <c1> = 0
    <c1i> = 0
    <Mu_ssd> = 0
    <Sigma_ssd> = 0
    <innerangle> = 0
    <outerangle> = 0
  <EndBdry>
[BlockProps]  = 12
  <BeginBlock>
    <BlockName> = "Rotor Iron"
    <Mu_x> = 1
    <Mu_y> = 1
    <H_c> = 0
    <H_cAngle> = 0
    <J_re> = 0
    <J_im> = 0
    <Sigma> = 0
    <d_lam> = 0
    <Phi_h> = 0
    <Phi_hx> = 0
    <Phi_hy> = 0
    <LamType> = 0
    <LamFill> = 1
    <NStrands> = 0
    <WireD> = 0
    <BHPoints> = 3
      0	0
      1	2
      2	3
  <EndBlock>
  <BeginBlock>
    <BlockName> = "Air"
    <Mu_x> = 1
    <Mu_y> = 1
    <H_c> = 0
    <H_cAngle> = 0
    <J_re> = 0
    <J_im> = 0
    <Sigma> = 0
    <d_lam> = 0
    <Phi_h> = 0
    <Phi_hx> = 0
    <Phi_hy> = 0
    <LamType> = 0
    <LamFill> = 1
    <NStrands> = 0
    <WireD> = 0
    <BHPoints> = 0
  <EndBlock>
  <BeginBlock>
    <BlockName> = "MagnetRot_0"
    <Mu_x> = 1
    <Mu_y> = 1
    <H_c> = 1
    <H_cAngle> = 0
    <J_re> = 0
    <J_im> = 0
    <Sigma> = 0
    <d_lam> = 0
    <Phi_h> = 0
    <Phi_hx> = 0
    <Phi_hy> = 0
    <LamType> = 0
    <LamFill> = 1
    <NStrands> = 0
    <WireD> = 0
    <BHPoints> = 0
  <EndBlock>
  <BeginBlock>
    <BlockName> = "MagnetRot_1"
    <Mu_x> = 1
    <Mu_y> = 1
    <H_c> = 1
    <H_cAngle> = 0
    <J_re> = 0
    <J_im> = 0
    <Sigma> = 0
    <d_lam> = 0
    <Phi_h> = 0
    <Phi_hx> = 0
    <Phi_hy> = 0
    <LamType> = 0
    <LamFill> = 1
    <NStrands> = 0
    <WireD> = 0
    <BHPoints> = 0
  <EndBlock>
  <BeginBlock>
    <BlockName> = "Airgap"
    <Mu_x> = 1
    <Mu_y> = 1
    <H_c> = 0
    <H_cAngle> = 0
    <J_re> = 0
    <J_im> = 0
    <Sigma> = 0
    <d_lam> = 0
    <Phi_h> = 0
    <Phi_hx> = 0
    <Phi_hy> = 0
    <LamType> = 0
    <LamFill> = 1
    <NStrands> = 0
    <WireD> = 0
    <BHPoints> = 0
  <EndBlock>
  <BeginBlock>
    <BlockName> = "Stator Iron"
    <Mu_x> = 1
    <Mu_y> = 1
    <H_c> = 0
    <H_cAngle> = 0
    <J_re> = 0
    <J_im> = 0
    <Sigma> = 0
    <d_lam> = 0
    <Phi_h> = 0
    <Phi_hx> = 0
    <Phi_hy> = 0
    <LamType> = 0
    <LamFill> = 1
    <NStrands> = 0
    <WireD> = 0
    <BHPoints> = 3
      0	0
      1	2
      2	3
  <EndBlock>
  <BeginBlock>
    <BlockName> = "Js0+"
    <Mu_x> = 1
    <Mu_y> = 1
    <H_c> = 0
    <H_cAngle> = 0
    <J_re> = 0
    <J_im> = 0
    <Sigma> = 0
    <d_lam> = 0
    <Phi_h> = 0
    <Phi_hx> = 0
    <Phi_hy> = 0
    <LamType> = 0
    <LamFill> = 1
    <NStrands> = 1
    <WireD> = 0.0030000000000000001
    <BHPoints> = 0
  <EndBlock>
  <BeginBlock>
    <BlockName> = "Js1-"
    <Mu_x> = 1
    <Mu_y> = 1
    <H_c> = 0
    <H_cAngle> = 0
    <J_re> = 0
    <J_im> = 0
    <Sigma> = 0
    <d_lam> = 0
    <Phi_h> = 0
    <Phi_hx> = 0
    <Phi_hy> = 0
    <LamType> = 0
    <LamFill> = 1
    <NStrands> = 1
    <WireD> = 0.0030000000000000001
    <BHPoints> = 0
  <EndBlock>
  <BeginBlock>
    <BlockName> = "Js2+"
    <Mu_x> = 1
    <Mu_y> = 1
    <H_c> = 0
    <H_cAngle> = 0
    <J_re> = 0
    <J_im> = 0
    <Sigma> = 0
    <d_lam> = 0
    <Phi_h> = 0
    <Phi_hx> = 0
    <Phi_hy> = 0
    <LamType> = 0
    <LamFill> = 1
    <NStrands> = 1
    <WireD> = 0.0030000000000000001
    <BHPoints> = 0
  <EndBlock>
  <BeginBlock>
    <BlockName> = "Js0-"
    <Mu_x> = 1
    <Mu_y> = 1
    <H_c> = 0
    <H_cAngle> = 0
    <J_re> = 0
    <J_im> = 0
    <Sigma> = 0
    <d_lam> = 0
    <Phi_h> = 0
    <Phi_hx> = 0
    <Phi_hy> = 0
    <LamType> = 0
    <LamFill> = 1
    <NStrands> = 1
    <WireD> = 0.0030000000000000001
    <BHPoints> = 0
  <EndBlock>
  <BeginBlock>
    <BlockName> = "Js1+"
    <Mu_x> = 1
    <Mu_y> = 1
    <H_c> = 0
    <H_cAngle> = 0
    <J_re> = 0
    <J_im> = 0
    <Sigma> = 0
    <d_lam> = 0
    <Phi_h> = 0
    <Phi_hx> = 0
    <Phi_hy> = 0
    <LamType> = 0
    <LamFill> = 1
    <NStrands> = 1
    <WireD> = 0.0030000000000000001
    <BHPoints> = 0
  <EndBlock>
  <BeginBlock>
    <BlockName> = "Js2-"
    <Mu_x> = 1
    <Mu_y> = 1
    <H_c> = 0
    <H_cAngle> = 0
    <J_re> = 0
    <J_im> = 0
    <Sigma> = 0
    <d_lam> = 0
    <Phi_h> = 0
    <Phi_hx> = 0
    <Phi_hy> = 0
    <LamType> = 0
    <LamFill> = 1
    <NStrands> = 1
    <WireD> = 0.0030000000000000001
    <BHPoints> = 0
  <EndBlock>
[CircuitProps]  = 72
  <BeginCircuit>
    <CircuitName> = "Circs0"
    <TotalAmps_re> = 0
    <TotalAmps_im> = 0
    <CircuitType> = 1
  <EndCircuit>
  <BeginCircuit>
    <CircuitName> = "Circs0"
    <TotalAmps_re> = 0
    <TotalAmps_im> = 0
    <CircuitType> = 1
  <EndCircuit>
  <BeginCircuit>
    <CircuitName> = "Circs0"
    <TotalAmps_re> = 0
    <TotalAmps_im> = 0
    <CircuitType> = 1
  <EndCircuit>
  <BeginCircuit>
    <CircuitName> = "Circs1"
    <TotalAmps_re> = 0
    <TotalAmps_im> = 0
    <CircuitType> = 1
  <EndCircuit>
  <BeginCircuit>
    <CircuitName> = "Circs1"
    <TotalAmps_re> = 0
    <TotalAmps_im> = 0
    <CircuitType> = 1
  <EndCircuit>
  <BeginCircuit>
    <CircuitName> = "Circs1"
    <TotalAmps_re> = 0
    <TotalAmps_im> = 0
    <CircuitType> = 1
  <EndCircuit>
  <BeginCircuit>
    <CircuitName> = "Circs1"
    <TotalAmps_re> = 0
    <TotalAmps_im> = 0
    <CircuitType> = 1
  <EndCircuit>
  <BeginCircuit>
    <CircuitName> = "Circs2"
    <TotalAmps_re> = 0
    <TotalAmps_im> = 0
    <CircuitType> = 1
  <EndCircuit>
  <BeginCircuit>
    <CircuitName> = "Circs2"
    <TotalAmps_re> = 0
    <TotalAmps_im> = 0
    <CircuitType> = 1
  <EndCircuit>
  <BeginCircuit>
    <CircuitName> = "Circs2"
    <TotalAmps_re> = 0
    <TotalAmps_im> = 0
    <CircuitType> = 1
  <EndCircuit>
  <BeginCircuit>
    <CircuitName> = "Circs2"
    <TotalAmps_re> = 0
    <TotalAmps_im> = 0
    <CircuitType> = 1
  <EndCircuit>
  <BeginCircuit>
    <CircuitName> = "Circs0"
    <TotalAmps_re> = 0
    <TotalAmps_im> = 0
    <CircuitType> = 1
  <EndCircuit>
  <BeginCircuit>
    <CircuitName> = "Circs0"
    <TotalAmps_re> = 0
    <TotalAmps_im> = 0
    <CircuitType> = 1
  <EndCircuit>
  <BeginCircuit>
    <CircuitName> = "Circs0"
    <TotalAmps_re> = 0
    <TotalAmps_im> = 0
    <CircuitType> = 1
  <EndCircuit>
  <BeginCircuit>
    <CircuitName> = "Circs0"
    <TotalAmps_re> = 0
    <TotalAmps_im> = 0
    <CircuitType> = 1
  <EndCircuit>
  <BeginCircuit>
    <CircuitName> = "Circs1"
    <TotalAmps_re> = 0
    <TotalAmps_im> = 0
    <CircuitType> = 1
  <EndCircuit>
  <BeginCircuit>
    <CircuitName> = "Circs1"
    <TotalAmps_re> = 0
    <TotalAmps_im> = 0
    <CircuitType> = 1
  <EndCircuit>
  <BeginCircuit>
    <CircuitName> = "Circs1"
    <TotalAmps_re> = 0
    <TotalAmps_im> = 0
    <CircuitType> = 1
  <EndCircuit>
  <BeginCircuit>
    <CircuitName> = "Circs1"
    <TotalAmps_re> = 0
    <TotalAmps_im> = 0
    <CircuitType> = 1
  <EndCircuit>
  <BeginCircuit>
    <CircuitName> = "Circs2"
    <TotalAmps_re> = 0
    <TotalAmps_im> = 0
    <CircuitType> = 1
  <EndCircuit>
  <BeginCircuit>
    <CircuitName> = "Circs2"
    <TotalAmps_re> = 0
    <TotalAmps_im> = 0
    <CircuitType> = 1
  <EndCircuit>
  <BeginCircuit>
    <CircuitName> = "Circs2"
    <TotalAmps_re> = 0
    <TotalAmps_im> = 0
    <CircuitType> = 1
  <EndCircuit>
  <BeginCircuit>
    <CircuitName> = "Circs2"
    <TotalAmps_re> = 0
    <TotalAmps_im> = 0
    <CircuitType> = 1
  <EndCircuit>
  <BeginCircuit>
    <CircuitName> = "Circs0"
    <TotalAmps_re> = 0
    <TotalAmps_im> = 0
    <CircuitType> = 1
  <EndCircuit>
  <BeginCircuit>
    <CircuitName> = "Circs0"
    <TotalAmps_re> = 0
    <TotalAmps_im> = 0
    <CircuitType> = 1
  <EndCircuit>
  <BeginCircuit>
    <CircuitName> = "Circs0"
    <TotalAmps_re> = 0
    <TotalAmps_im> = 0
    <CircuitType> = 1
  <EndCircuit>
  <BeginCircuit>
    <CircuitName> = "Circs0"
    <TotalAmps_re> = 0
    <TotalAmps_im> = 0
    <CircuitType> = 1
  <EndCircuit>
  <BeginCircuit>
    <CircuitName> = "Circs1"
    <TotalAmps_re> = 0
    <TotalAmps_im> = 0
    <CircuitType> = 1
  <EndCircuit>
  <BeginCircuit>
    <CircuitName> = "Circs1"
    <TotalAmps_re> = 0
    <TotalAmps_im> = 0
    <CircuitType> = 1
  <EndCircuit>
  <BeginCircuit>
    <CircuitName> = "Circs1"
    <TotalAmps_re> = 0
    <TotalAmps_im> = 0
    <CircuitType> = 1
  <EndCircuit>
  <BeginCircuit>
    <CircuitName> = "Circs1"
    <TotalAmps_re> = 0
    <TotalAmps_im> = 0
    <CircuitType> = 1
  <EndCircuit>
  <BeginCircuit>
    <CircuitName> = "Circs2"
    <TotalAmps_re> = 0
    <TotalAmps_im> = 0
    <CircuitType> = 1
  <EndCircuit>
  <BeginCircuit>
    <CircuitName> = "Circs2"
    <TotalAmps_re> = 0
    <TotalAmps_im> = 0
    <CircuitType> = 1
  <EndCircuit>
  <BeginCircuit>
    <CircuitName> = "Circs2"
    <TotalAmps_re> = 0
    <TotalAmps_im> = 0
    <CircuitType> = 1
  <EndCircuit>
  <BeginCircuit>
    <CircuitName> = "Circs2"
    <TotalAmps_re> = 0
    <TotalAmps_im> = 0
    <CircuitType> = 1
  <EndCircuit>
  <BeginCircuit>
    <CircuitName> = "Circs0"
    <TotalAmps_re> = 0
    <TotalAmps_im> = 0
    <CircuitType> = 1
  <EndCircuit>
  <BeginCircuit>
    <CircuitName> = "Circs0"
    <TotalAmps_re> = 0
    <TotalAmps_im> = 0
    <CircuitType> = 1
  <EndCircuit>
  <BeginCircuit>
    <CircuitName> = "Circs0"
    <TotalAmps_re> = 0
    <TotalAmps_im> = 0
    <CircuitType> = 1
  <EndCircuit>
  <BeginCircuit>
    <CircuitName> = "Circs0"
    <TotalAmps_re> = 0
    <TotalAmps_im> = 0
    <CircuitType> = 1
  <EndCircuit>
  <BeginCircuit>
    <CircuitName> = "Circs1"
    <TotalAmps_re> = 0
    <TotalAmps_im> = 0
    <CircuitType> = 1
  <EndCircuit>
  <BeginCircuit>
    <CircuitName> = "Circs1"
    <TotalAmps_re> = 0
    <TotalAmps_im> = 0
    <CircuitType> = 1
  <EndCircuit>
  <BeginCircuit>
    <CircuitName> = "Circs1"
    <TotalAmps_re> = 0
    <TotalAmps_im> = 0
    <CircuitType> = 1
  <EndCircuit>
  <BeginCircuit>
    <CircuitName> = "Circs1"
    <TotalAmps_re> = 0
    <TotalAmps_im> = 0
    <CircuitType> = 1
  <EndCircuit>
  <BeginCircuit>
    <CircuitName> = "Circs2"
    <TotalAmps_re> = 0
    <TotalAmps_im> = 0
    <CircuitType> = 1
  <EndCircuit>
  <BeginCircuit>
    <CircuitName> = "Circs2"
    <TotalAmps_re> = 0
    <TotalAmps_im> = 0
    <CircuitType> = 1
  <EndCircuit>
  <BeginCircuit>
    <CircuitName> = "Circs2"
    <TotalAmps_re> = 0
    <TotalAmps_im> = 0
    <CircuitType> = 1
  <EndCircuit>
  <BeginCircuit>
    <CircuitName> = "Circs2"
    <TotalAmps_re> = 0
    <TotalAmps_im> = 0
    <CircuitType> = 1
  <EndCircuit>
  <BeginCircuit>
    <CircuitName> = "Circs0"
    <TotalAmps_re> = 0
    <TotalAmps_im> = 0
    <CircuitType> = 1
  <EndCircuit>
  <BeginCircuit>
    <CircuitName> = "Circs0"
    <TotalAmps_re> = 0
    <TotalAmps_im> = 0
    <CircuitType> = 1
  <EndCircuit>
  <BeginCircuit>
    <CircuitName> = "Circs0"
    <TotalAmps_re> = 0
    <TotalAmps_im> = 0
    <CircuitType> = 1
  <EndCircuit>
  <BeginCircuit>
    <CircuitName> = "Circs0"
    <TotalAmps_re> = 0
    <TotalAmps_im> = 0
    <CircuitType> = 1
  <EndCircuit>
  <BeginCircuit>
    <CircuitName> = "Circs1"
    <TotalAmps_re> = 0
    <TotalAmps_im> = 0
    <CircuitType> = 1
  <EndCircuit>
  <BeginCircuit>
    <CircuitName> = "Circs1"
    <TotalAmps_re> = 0
    <TotalAmps_im> = 0
    <CircuitType> = 1
  <EndCircuit>
  <BeginCircuit>
    <CircuitName> = "Circs1"
    <TotalAmps_re> = 0
    <TotalAmps_im> = 0
    <CircuitType> = 1
  <EndCircuit>
  <BeginCircuit>
    <CircuitName> = "Circs1"
    <TotalAmps_re> = 0
    <TotalAmps_im> = 0
    <CircuitType> = 1
  <EndCircuit>
  <BeginCircuit>
    <CircuitName> = "Circs2"
    <TotalAmps_re> = 0
    <TotalAmps_im> = 0
    <CircuitType> = 1
  <EndCircuit>
  <BeginCircuit>
    <CircuitName> = "Circs2"
    <TotalAmps_re> = 0
    <TotalAmps_im> = 0
    <CircuitType> = 1
  <EndCircuit>
  <BeginCircuit>
    <CircuitName> = "Circs2"
    <TotalAmps_re> = 0
    <TotalAmps_im> = 0
    <CircuitType> = 1
  <EndCircuit>
  <BeginCircuit>
    <CircuitName> = "Circs2"
    <TotalAmps_re> = 0
    <TotalAmps_im> = 0
    <CircuitType> = 1
  <EndCircuit>
  <BeginCircuit>
    <CircuitName> = "Circs0"
    <TotalAmps_re> = 0
    <TotalAmps_im> = 0
    <CircuitType> = 1
  <EndCircuit>
  <BeginCircuit>
    <CircuitName> = "Circs0"
    <TotalAmps_re> = 0
    <TotalAmps_im> = 0
    <CircuitType> = 1
  <EndCircuit>
  <BeginCircuit>
    <CircuitName> = "Circs0"
    <TotalAmps_re> = 0
    <TotalAmps_im> = 0
    <CircuitType> = 1
  <EndCircuit>
  <BeginCircuit>
    <CircuitName> = "Circs0"
    <TotalAmps_re> = 0
    <TotalAmps_im> = 0
    <CircuitType> = 1
  <EndCircuit>
  <BeginCircuit>
    <CircuitName> = "Circs1"
    <TotalAmps_re> = 0
    <TotalAmps_im> = 0
    <CircuitType> = 1
  <EndCircuit>
  <BeginCircuit>
    <CircuitName> = "Circs1"
    <TotalAmps_re> = 0
    <TotalAmps_im> = 0
    <CircuitType> = 1
  <EndCircuit>
  <BeginCircuit>
    <CircuitName> = "Circs1"
    <TotalAmps_re> = 0
    <TotalAmps_im> = 0
    <CircuitType> = 1
  <EndCircuit>
  <BeginCircuit>
    <CircuitName> = "Circs1"
    <TotalAmps_re> = 0
    <TotalAmps_im> = 0
    <CircuitType> = 1
  <EndCircuit>
  <BeginCircuit>
    <CircuitName> = "Circs2"
    <TotalAmps_re> = 0
    <TotalAmps_im> = 0
    <CircuitType> = 1
  <EndCircuit>
  <BeginCircuit>
    <CircuitName> = "Circs2"
    <TotalAmps_re> = 0
    <TotalAmps_im> = 0
    <CircuitType> = 1
  <EndCircuit>
  <BeginCircuit>
    <CircuitName> = "Circs2"
    <TotalAmps_re> = 0
    <TotalAmps_im> = 0
    <CircuitType> = 1
  <EndCircuit>
  <BeginCircuit>
    <CircuitName> = "Circs2"
    <TotalAmps_re> = 0
    <TotalAmps_im> = 0
    <CircuitType> = 1
  <EndCircuit>
  <BeginCircuit>
    <CircuitName> = "Circs0"
    <TotalAmps_re> = 0
    <TotalAmps_im> = 0
    <CircuitType> = 1
  <EndCircuit>
[NumPoints] = 682
0.14300000000000002	0	0	2
-0.14300000000000002	0	0	2
0.050000000000000003	0	0	2
-0.050000000000000003	0	0	2
0.13262352732452867	0.010000000000000002	0	14
0.1305596578593935	0.010000000000000002	0	14
0.12637069640706688	0.019402075464606261	0	4
0.13002446113254282	0.021029958547283734	0	4
0.13194489904400752	0.016719557896866331	0	14
0.14094489904400753	0.016719557896866331	0	14
0.14162352732452868	0.0099999999999999985	0	14
0.12545725522569789	0.018995104693936893	0	4
0.12057360597766548	0.029956398870364821	0	4
0.12148704715903447	0.030363369641034185	0	14
0.12514081188451043	0.031991252723711651	0	14
0.12082181732856917	0.031856470291045692	0	14
0.12473384111384107	0.032904693905080641	0	14
0.12039255389099907	0.034448074125884437	0	4
0.12056299828346664	0.032822396117334764	0	14
0.12447502206873855	0.033870619731369712	0	14
0.12437074850405146	0.034865168384632807	0	4
0.11914127111475394	0.046382657965041638	0	14
0.11814672246149084	0.046278384400354547	0	4
0.11939800523773597	0.034343800561197346	0	4
0.12311946572780631	0.046799752223790014	0	14
0.11985534380254147	0.057651509624419943	0	14
0.11806798041563941	0.056619574891852341	0	14
0.12262741342031679	0.051492887643272797	0	14
0.13042164205437673	0.055992887643272801	0	14
0.12764957243660144	0.062151509624419954	0	14
0.10985534380254149	0.074972017700108709	0	14
0.10806798041563942	0.073940082967541121	0	14
0.099739195650147688	0.079988038442025219	0	4
0.10208950718052258	0.083224708908752804	0	4
0.10590785552345046	0.080452011400734713	0	14
0.1137020841575104	0.084952011400734717	0	14
0.11764957243660143	0.079472017700108713	0	14
0.099151617767553962	0.07917887082534332	0	4
0.08944160636737114	0.08622980541646813	0	4
0.09002918424996488	0.08703897303315003	0	14
0.092379495780339813	0.0902756434998776	0	14
0.088706527992420972	0.087999421211234399	0	14
0.091570328163657927	0.090863221382471354	0	14
0.087038973033150044	0.090029184249964866	0	4
0.087999421211234413	0.088706527992420944	0	14
0.090863221382471368	0.091570328163657899	0	14
0.090275643499877642	0.092379495780339799	0	4
0.079988038442025247	0.099739195650147661	0	14
0.079178870825343348	0.099151617767553935	0	4
0.086229805416468144	0.08944160636737114	0	4
0.083224708908752817	0.10208950718052258	0	14
0.074972017700108723	0.10985534380254147	0	14
0.073940082967541149	0.10806798041563939	0	14
0.080452011400734755	0.10590785552345044	0	14
0.084952011400734745	0.11370208415751039	0	14
0.079472017700108741	0.11764957243660143	0	14
0.057651509624419964	0.11985534380254147	0	14
0.056619574891852376	0.11806798041563941	0	14
0.046382657965041665	0.11914127111475394	0	4
0.046799752223790021	0.1231194657278063	0	4
0.051492887643272811	0.12262741342031677	0	14
0.055992887643272815	0.13042164205437673	0	14
0.062151509624419968	0.12764957243660141	0	14
0.046278384400354575	0.11814672246149084	0	4
0.03434380056119736	0.11939800523773596	0	4
0.034448074125884451	0.12039255389099905	0	14
0.034865168384632828	0.12437074850405144	0	14
0.032822396117334784	0.12056299828346664	0	14
0.033870619731369733	0.12447502206873856	0	14
0.030363369641034206	0.12148704715903447	0	4
0.031856470291045706	0.12082181732856917	0	14
0.032904693905080662	0.12473384111384106	0	14
0.031991252723711672	0.12514081188451043	0	4
0.019402075464606289	0.12637069640706686	0	14
0.018995104693936921	0.12545725522569787	0	4
0.029956398870364838	0.12057360597766548	0	4
0.021029958547283747	0.13002446113254282	0	14
0.010000000000000016	0.13262352732452867	0	14
0.010000000000000037	0.1305596578593935	0	14
0.016719557896866355	0.13194489904400752	0	14
0.016719557896866348	0.14094489904400753	0	14
0.010000000000000023	0.14162352732452868	0	14
-0.0099999999999999933	0.13262352732452867	0	14
-0.0099999999999999933	0.1305596578593935	0	14
-0.019402075464606254	0.12637069640706688	0	4
-0.021029958547283727	0.13002446113254282	0	4
-0.016719557896866324	0.13194489904400752	0	14
-0.016719557896866324	0.14094489904400753	0	14
-0.0099999999999999898	0.14162352732452868	0	14
-0.018995104693936886	0.12545725522569789	0	4
-0.029956398870364814	0.12057360597766548	0	4
-0.030363369641034178	0.12148704715903447	0	14
-0.031991252723711644	0.12514081188451043	0	14
-0.031856470291045685	0.12082181732856917	0	14
-0.032904693905080634	0.12473384111384107	0	14
-0.03444807412588443	0.12039255389099907	0	4
-0.032822396117334757	0.12056299828346664	0	14
-0.033870619731369705	0.12447502206873855	0	14
-0.0348651683846328	0.12437074850405146	0	4
-0.046382657965041631	0.11914127111475394	0	14
-0.04627838440035454	0.11814672246149084	0	4
-0.034343800561197339	0.11939800523773597	0	4
-0.046799752223790007	0.12311946572780631	0	14
-0.057651509624419936	0.11985534380254147	0	14
-0.056619574891852334	0.11806798041563941	0	14
-0.05149288764327279	0.12262741342031679	0	14
-0.055992887643272794	0.13042164205437673	0	14
-0.062151509624419947	0.12764957243660144	0	14
-0.074972017700108695	0.10985534380254149	0	14
-0.073940082967541107	0.10806798041563942	0	14
-0.079988038442025206	0.099739195650147688	0	4
-0.08322470890875279	0.10208950718052258	0	4
-0.080452011400734699	0.10590785552345046	0	14
-0.084952011400734703	0.1137020841575104	0	14
-0.079472017700108699	0.11764957243660144	0	14
-0.079178870825343306	0.099151617767553962	0	4
-0.086229805416468103	0.089441606367371154	0	4
-0.087038973033150002	0.09002918424996488	0	14
-0.0902756434998776	0.092379495780339813	0	14
-0.087999421211234385	0.088706527992420972	0	14
-0.090863221382471326	0.091570328163657927	0	14
-0.090029184249964853	0.087038973033150058	0	4
-0.08870652799242093	0.087999421211234413	0	14
-0.091570328163657871	0.090863221382471368	0	14
-0.092379495780339771	0.090275643499877642	0	4
-0.099739195650147633	0.079988038442025247	0	14
-0.099151617767553907	0.079178870825343348	0	4
-0.089441606367371126	0.086229805416468158	0	4
-0.10208950718052257	0.083224708908752831	0	14
-0.10985534380254144	0.074972017700108737	0	14
-0.10806798041563936	0.073940082967541162	0	14
-0.10590785552345042	0.080452011400734755	0	14
-0.11370208415751037	0.084952011400734745	0	14
-0.1176495724366014	0.079472017700108755	0	14
-0.11985534380254145	0.057651509624419991	0	14
-0.1180679804156394	0.056619574891852403	0	14
-0.11914127111475392	0.0463826579650417	0	4
-0.1231194657278063	0.046799752223790056	0	4
-0.12262741342031677	0.051492887643272839	0	14
-0.1304216420543767	0.055992887643272843	0	14
-0.12764957243660141	0.062151509624419995	0	14
-0.11814672246149083	0.046278384400354609	0	4
-0.11939800523773594	0.034343800561197388	0	4
-0.12039255389099904	0.034448074125884486	0	14
-0.12437074850405144	0.034865168384632855	0	14
-0.12056299828346664	0.032822396117334812	0	14
-0.12447502206873855	0.033870619731369761	0	14
-0.12148704715903447	0.030363369641034237	0	4
-0.12082181732856916	0.031856470291045741	0	14
-0.12473384111384106	0.03290469390508069	0	14
-0.12514081188451043	0.031991252723711699	0	4
-0.12637069640706686	0.019402075464606323	0	14
-0.12545725522569789	0.018995104693936955	0	4
-0.12057360597766548	0.029956398870364869	0	4
-0.13002446113254282	0.021029958547283775	0	14
-0.13262352732452867	0.010000000000000051	0	14
-0.1305596578593935	0.010000000000000071	0	14
-0.13194489904400752	0.01671955789686639	0	14
-0.14094489904400753	0.016719557896866383	0	14
-0.14162352732452868	0.010000000000000057	0	14
-0.13262352732452867	-0.0099999999999999863	0	14
-0.1305596578593935	-0.0099999999999999863	0	14
-0.12637069640706688	-0.019402075464606247	0	4
-0.13002446113254282	-0.021029958547283716	0	4
-0.13194489904400752	-0.016719557896866313	0	14
-0.14094489904400753	-0.016719557896866313	0	14
-0.14162352732452868	-0.0099999999999999811	0	14
-0.12545725522569789	-0.018995104693936879	0	4
-0.12057360597766548	-0.029956398870364807	0	4
-0.12148704715903447	-0.030363369641034171	0	14
-0.12514081188451043	-0.031991252723711637	0	14
-0.12082181732856917	-0.031856470291045678	0	14
-0.12473384111384107	-0.032904693905080627	0	14
-0.12039255389099907	-0.034448074125884423	0	4
-0.12056299828346664	-0.03282239611733475	0	14
-0.12447502206873855	-0.033870619731369699	0	14
-0.12437074850405146	-0.034865168384632793	0	4
-0.11914127111475394	-0.046382657965041624	0	14
-0.11814672246149084	-0.046278384400354533	0	4
-0.11939800523773597	-0.034343800561197332	0	4
-0.12311946572780631	-0.04679975222379	0	14
-0.11985534380254148	-0.057651509624419929	0	14
-0.11806798041563941	-0.056619574891852327	0	14
-0.12262741342031679	-0.051492887643272783	0	14
-0.13042164205437673	-0.055992887643272787	0	14
-0.12764957243660144	-0.06215150962441994	0	14
-0.1098553438025415	-0.074972017700108681	0	14
-0.10806798041563943	-0.073940082967541093	0	14
-0.099739195650147702	-0.079988038442025192	0	4
-0.10208950718052259	-0.083224708908752776	0	4
-0.10590785552345047	-0.080452011400734685	0	14
-0.11370208415751043	-0.084952011400734689	0	14
-0.11764957243660147	-0.079472017700108685	0	14
-0.099151617767553976	-0.079178870825343292	0	4
-0.089441606367371168	-0.086229805416468103	0	4
-0.090029184249964894	-0.087038973033150002	0	14
-0.092379495780339826	-0.090275643499877586	0	14
-0.088706527992420986	-0.087999421211234372	0	14
-0.091570328163657955	-0.090863221382471326	0	14
-0.087038973033150072	-0.090029184249964839	0	4
-0.087999421211234441	-0.08870652799242093	0	14
-0.090863221382471382	-0.091570328163657871	0	14
-0.090275643499877656	-0.092379495780339771	0	4
-0.079988038442025261	-0.099739195650147633	0	14
-0.079178870825343362	-0.099151617767553907	0	4
-0.086229805416468172	-0.089441606367371113	0	4
-0.083224708908752845	-0.10208950718052257	0	14
-0.074972017700108751	-0.10985534380254144	0	14
-0.073940082967541176	-0.10806798041563936	0	14
-0.080452011400734769	-0.10590785552345042	0	14
-0.084952011400734773	-0.11370208415751037	0	14
-0.079472017700108769	-0.1176495724366014	0	14
-0.057651509624420005	-0.11985534380254145	0	14
-0.056619574891852417	-0.1180679804156394	0	14
-0.046382657965041714	-0.11914127111475394	0	4
-0.04679975222379007	-0.1231194657278063	0	4
-0.051492887643272853	-0.12262741342031677	0	14
-0.055992887643272871	-0.1304216420543767	0	14
-0.062151509624420023	-0.12764957243660141	0	14
-0.046278384400354623	-0.11814672246149084	0	4
-0.034343800561197402	-0.11939800523773596	0	4
-0.034448074125884499	-0.12039255389099904	0	14
-0.034865168384632869	-0.12437074850405144	0	14
-0.032822396117334826	-0.12056299828346664	0	14
-0.033870619731369775	-0.12447502206873855	0	14
-0.030363369641034251	-0.12148704715903447	0	4
-0.031856470291045755	-0.12082181732856916	0	14
-0.032904693905080704	-0.12473384111384106	0	14
-0.031991252723711713	-0.12514081188451043	0	4
-0.019402075464606337	-0.12637069640706688	0	14
-0.018995104693936969	-0.12545725522569789	0	4
-0.029956398870364883	-0.12057360597766548	0	4
-0.021029958547283789	-0.13002446113254282	0	14
-0.010000000000000064	-0.13262352732452867	0	14
-0.010000000000000085	-0.1305596578593935	0	14
-0.016719557896866404	-0.13194489904400755	0	14
-0.016719557896866397	-0.14094489904400753	0	14
-0.010000000000000071	-0.14162352732452871	0	14
0.0099999999999999777	-0.13262352732452867	0	14
0.0099999999999999777	-0.1305596578593935	0	14
0.019402075464606237	-0.12637069640706688	0	4
0.021029958547283709	-0.13002446113254282	0	4
0.016719557896866306	-0.13194489904400752	0	14
0.016719557896866306	-0.14094489904400753	0	14
0.0099999999999999725	-0.14162352732452868	0	14
0.018995104693936869	-0.12545725522569789	0	4
0.0299563988703648	-0.12057360597766548	0	4
0.030363369641034164	-0.12148704715903447	0	14
0.03199125272371163	-0.12514081188451043	0	14
0.031856470291045672	-0.12082181732856917	0	14
0.03290469390508062	-0.12473384111384107	0	14
0.034448074125884416	-0.12039255389099907	0	4
0.032822396117334743	-0.12056299828346664	0	14
0.033870619731369692	-0.12447502206873855	0	14
0.034865168384632786	-0.12437074850405146	0	4
0.046382657965041617	-0.11914127111475395	0	14
0.046278384400354526	-0.11814672246149086	0	4
0.034343800561197325	-0.11939800523773597	0	4
0.046799752223789993	-0.12311946572780633	0	14
0.057651509624419922	-0.11985534380254148	0	14
0.05661957489185232	-0.11806798041563943	0	14
0.051492887643272776	-0.1226274134203168	0	14
0.05599288764327278	-0.13042164205437673	0	14
0.062151509624419933	-0.12764957243660144	0	14
0.07497201770010864	-0.10985534380254154	0	14
0.073940082967541051	-0.10806798041563948	0	14
0.07998803844202515	-0.099739195650147744	0	4
0.083224708908752734	-0.10208950718052263	0	4
0.080452011400734644	-0.10590785552345051	0	14
0.084952011400734634	-0.11370208415751047	0	14
0.07947201770010863	-0.1176495724366015	0	14
0.07917887082534325	-0.099151617767554018	0	4
0.086229805416468061	-0.08944160636737121	0	4
0.087038973033149961	-0.090029184249964936	0	14
0.090275643499877545	-0.092379495780339868	0	14
0.08799942121123433	-0.088706527992421014	0	14
0.090863221382471285	-0.091570328163657982	0	14
0.090029184249964811	-0.087038973033150113	0	4
0.088706527992420875	-0.087999421211234469	0	14
0.09157032816365783	-0.090863221382471437	0	14
0.092379495780339729	-0.090275643499877711	0	4
0.099739195650147605	-0.079988038442025317	0	14
0.099151617767553879	-0.079178870825343417	0	4
0.089441606367371085	-0.086229805416468214	0	4
0.10208950718052251	-0.083224708908752887	0	14
0.1098553438025414	-0.074972017700108806	0	14
0.10806798041563934	-0.073940082967541232	0	14
0.10590785552345039	-0.080452011400734824	0	14
0.11370208415751035	-0.084952011400734814	0	14
0.11764957243660137	-0.079472017700108824	0	14
0.11985534380254144	-0.057651509624420005	0	14
0.11806798041563939	-0.056619574891852417	0	14
0.11914127111475392	-0.046382657965041721	0	4
0.12311946572780628	-0.04679975222379007	0	4
0.12262741342031674	-0.05149288764327286	0	14
0.1304216420543767	-0.055992887643272878	0	14
0.12764957243660138	-0.062151509624420023	0	14
0.11814672246149083	-0.046278384400354623	0	4
0.11939800523773594	-0.034343800561197402	0	4
0.12039255389099904	-0.034448074125884499	0	14
0.12437074850405143	-0.034865168384632869	0	14
0.12056299828346663	-0.032822396117334826	0	14
0.12447502206873853	-0.033870619731369782	0	14
0.12148704715903445	-0.030363369641034255	0	4
0.12082181732856914	-0.031856470291045755	0	14
0.12473384111384105	-0.032904693905080704	0	14
0.12514081188451043	-0.031991252723711727	0	4
0.12637069640706686	-0.019402075464606344	0	14
0.12545725522569789	-0.018995104693936976	0	4
0.12057360597766546	-0.029956398870364886	0	4
0.13002446113254282	-0.021029958547283796	0	14
0.13262352732452865	-0.010000000000000071	0	14
0.13055965785939347	-0.010000000000000092	0	14
0.13194489904400752	-0.016719557896866404	0	14
0.14094489904400753	-0.016719557896866404	0	14
0.14162352732452868	-0.010000000000000078	0	14
0.14333333333333334	0	0	0
-0.14333333333333334	0	0	0
0.14366666666666669	0	0	0
-0.14366666666666669	0	0	0
0.21249999999999999	0	0	1
-0.21249999999999999	0	0	1
0.14357498715712141	0.011055453985813233	0	1
0.14656357125139666	0.011316921214056207	0	1
0.14699934996513495	0.0063359477235974803	0	3
0.16679251031284834	0.0095733546256882608	0	3
0.16592095288537176	0.019535301606605715	0	3
0.14586632530941537	0.019286478798790169	0	3
0.14630210402315366	0.014305505308331443	0	1
0.14331351992887842	0.014044038080088469	0	1
0.13947400105304428	0.035819031676685646	0	1
0.14237177853191152	0.036595488811993211	0	1
0.1436658737574241	0.031765859680547869	0	3
0.16259616171555166	0.038391129322031883	0	3
0.16000797126452646	0.048050387584922569	0	3
0.14030122617109131	0.044322895422305754	0	3
0.14159532139660391	0.039493266290860411	0	1
0.13869754391773673	0.038716809155552853	0	1
0.13113516800422034	0.059494266215366555	0	1
0.13385409136533036	0.06076212100058867	0	1
0.13596718267403385	0.056230582065405418	0	3
0.15345941102215577	0.066042408980774361	0	3